[TITLE]
EPANET TPM802A
This is an adjusted system based on the Cherry Hill/Brushy Plains network by Rossman et al. (1994).

[JUNCTIONS]
;ID              	Elev        	Demand      	Pattern         
 2               	30.5        	20.41       	1               	;
 3               	18.3        	20.41       	1               	;
 4               	18.3        	20.41       	1               	;
 5               	30.5        	20.41       	1               	;
 6               	38.1        	20.41       	1               	;
 7               	48.8        	20.41       	1               	;
 8               	33.5        	20.41       	1               	;
 9               	54.9        	20.41       	1               	;
 10              	39.6        	20.41       	1               	;
 11              	56.4        	20.41       	1               	;
 12              	64          	20.41       	1               	;
 13              	64          	20.41       	1               	;
 14              	61          	20.41       	1               	;
 15              	57.9        	20.41       	1               	;
 16              	45.7        	20.41       	1               	;
 17              	54.9        	20.41       	1               	;
 18              	30.5        	20.41       	1               	;
 19              	45.7        	20.41       	1               	;
 20              	51.8        	20.41       	1               	;
 21              	45.7        	20.41       	1               	;
 22              	61          	20.41       	1               	;
 23              	70.1        	20.41       	1               	;
 24              	57.9        	20.41       	1               	;
 25              	70.1        	20.41       	1               	;
 27              	39.6        	20.41       	1               	;
 28              	33.5        	20.41       	1               	;
 29              	33.5        	20.41       	1               	;
 30              	39.6        	20.41       	1               	;
 31              	57.9        	20.41       	1               	;
 32              	33.5        	20.41       	1               	;
 33              	54.9        	20.41       	1               	;
 34              	57.9        	20.41       	1               	;
 35              	33.5        	20.41       	1               	;
 36              	33.5        	20.41       	1               	;

[RESERVOIRS]
;ID              	Head        	Pattern         
 1               	3.16        	                	;

[TANKS]
;ID              	Elevation   	InitLevel   	MinLevel    	MaxLevel    	Diameter    	MinVol      	VolCurve        	Overflow
 26              	71.63       	21          	0.3         	24          	20          	0           	                	;

[PIPES]
;ID              	Node1           	Node2           	Length      	Diameter    	Roughness   	MinorLoss   	Status
 2               	2               	5               	243.84      	304.8       	110         	0           	Open  	;
 3               	2               	3               	396.24      	203.2       	110         	0           	Open  	;
 4               	3               	4               	365.76      	203.2       	110         	0           	Open  	;
 5               	4               	5               	304.8       	153.4       	110         	0           	Open  	;
 6               	5               	6               	365.76      	304.8       	110         	0           	Open  	;
 7               	6               	7               	822.96      	203.2       	110         	0           	Open  	;
 8               	7               	8               	365.76      	304.8       	110         	0           	Open  	;
 9               	7               	9               	121.92      	304.8       	110         	0           	Open  	;
 10              	8               	10              	304.8       	203.2       	110         	0           	Open  	;
 11              	9               	11              	213.36      	304.8       	110         	0           	Open  	;
 12              	11              	12              	579.12      	304.8       	110         	0           	Open  	;
 13              	12              	13              	182.88      	304.8       	110         	0           	Open  	;
 14              	13              	14              	121.92      	304.8       	110         	0           	Open  	;
 15              	14              	15              	91.44       	304.8       	110         	0           	Open  	;
 16              	13              	16              	457.2       	152.4       	110         	0           	Open  	;
 17              	15              	17              	457.2       	152.4       	110         	0           	Open  	;
 18              	16              	17              	182.88      	203.2       	110         	0           	Open  	;
 19              	17              	18              	213.36      	304.8       	110         	0           	Open  	;
 20              	18              	32              	106.68      	304.8       	110         	0           	Open  	;
 21              	16              	19              	426.72      	203.2       	110         	0           	Open  	;
 22              	14              	20              	335.28      	304.8       	110         	0           	Open  	;
 23              	20              	21              	396.24      	203.2       	110         	0           	Open  	;
 24              	21              	22              	396.24      	203.2       	110         	0           	Open  	;
 25              	20              	22              	396.24      	203.2       	110         	0           	Open  	;
 26              	24              	23              	182.88      	304.8       	110         	0           	Open  	;
 27              	15              	24              	76.2        	304.8       	110         	0           	Open  	;
 28              	23              	25              	91.44       	304.8       	110         	0           	Open  	;
 29              	25              	26              	60.96       	304.8       	110         	0           	Open  	;
 30              	25              	31              	182.88      	304.8       	110         	0           	Open  	;
 31              	31              	27              	121.92      	203.2       	110         	0           	Open  	;
 32              	27              	29              	121.92      	203.2       	110         	0           	Open  	;
 34              	29              	28              	213.36      	203.2       	110         	0           	Open  	;
 35              	22              	33              	304.8       	203.2       	110         	0           	Open  	;
 36              	33              	34              	121.92      	203.2       	110         	0           	Open  	;
 37              	32              	19              	152.4       	203.2       	110         	0           	Open  	;
 38              	29              	35              	152.4       	203.2       	110         	0           	Open  	;
 39              	35              	30              	304.8       	203.2       	110         	0           	Open  	;
 40              	28              	35              	213.36      	203.2       	110         	0           	Open  	;
 41              	28              	36              	91.44       	203.2       	110         	0           	Open  	;

[PUMPS]
;ID              	Node1           	Node2           	Parameters
 1               	1               	2               	HEAD 1	;

[VALVES]
;ID              	Node1           	Node2           	Diameter    	Type	Setting     	MinorLoss   

[TAGS]
 NODE 	2               	1
 NODE 	3               	1
 NODE 	4               	1
 NODE 	5               	1
 NODE 	6               	1
 NODE 	7               	1
 NODE 	8               	1
 NODE 	9               	1
 NODE 	10              	1
 NODE 	11              	1
 NODE 	12              	1
 NODE 	13              	1
 NODE 	14              	1
 NODE 	15              	1
 NODE 	16              	1
 NODE 	17              	1
 NODE 	18              	1
 NODE 	19              	1
 NODE 	20              	1
 NODE 	21              	1
 NODE 	22              	1
 NODE 	23              	1
 NODE 	24              	1
 NODE 	25              	1
 NODE 	27              	1
 NODE 	28              	1
 NODE 	29              	1
 NODE 	30              	1
 NODE 	31              	1
 NODE 	32              	1
 NODE 	33              	1
 NODE 	34              	1
 NODE 	35              	1
 NODE 	36              	1

[DEMANDS]
;Junction        	Demand      	Pattern         	Category

[STATUS]
;ID              	Status/Setting
 1               	Closed

[PATTERNS]
;ID              	Multipliers
;Demand Pattern
 1               	0.4         	0.3         	0.25        	0.25        	0.3         	0.6         
 1               	1.2         	1.6         	1.2         	0.9         	0.65        	0.9         
 1               	0.8         	0.75        	0.7         	0.65        	0.75        	0.9         
 1               	1.1         	1.6         	1.3         	1.1         	0.7         	0.5         

[CURVES]
;ID              	X-Value     	Y-Value
;PUMP: PUMP: PUMP: PUMP: PUMP: 
 1               	400         	250         
;PUMP: PUMP: PUMP: PUMP: PUMP: 
 2               	666         	298.4       

[CONTROLS]





[RULES]
RULE 1
IF TANK 26 LEVEL BELOW 20
THEN PUMP 1 STATUS IS OPEN

RULE 2
IF TANK 26 LEVEL ABOVE 24
THEN PUMP 1 STATUS IS CLOSED






[ENERGY]
 Global Efficiency  	75
 Global Price       	0.0
 Demand Charge      	0.0

[EMITTERS]
;Junction        	Coefficient

[QUALITY]
;Node            	InitQual
 2               	1.0
 3               	1.0
 4               	1.0
 5               	1.0
 6               	1.0
 7               	1.0
 8               	1.0
 9               	1.0
 10              	1.0
 11              	1.0
 12              	1.0
 13              	1.0
 14              	1.0
 15              	1.0
 16              	1.0
 17              	1.0
 18              	1.0
 19              	1.0
 20              	1.0
 21              	1.0
 22              	1.0
 23              	1.0
 24              	1.0
 25              	1.0
 27              	1.0
 28              	1.0
 29              	1.0
 30              	1.0
 31              	1.0
 32              	1.0
 33              	1.0
 34              	1.0
 35              	1.0
 36              	1.0
 26              	1.0

[SOURCES]
;Node            	Type        	Quality     	Pattern

[REACTIONS]
;Type     	Pipe/Tank       	Coefficient


[REACTIONS]
 Order Bulk            	1
 Order Tank            	1
 Order Wall            	1
 Global Bulk           	0.0
 Global Wall           	0.0
 Limiting Potential    	0.0
 Roughness Correlation 	0.0

[MIXING]
;Tank            	Model

[TIMES]
 Duration           	120:00
 Hydraulic Timestep 	1:00 
 Quality Timestep   	0:05 
 Pattern Timestep   	1:00 
 Pattern Start      	0:00 
 Report Timestep    	1:00 
 Report Start       	0:00 
 Start ClockTime    	12 am
 Statistic          	NONE

[REPORT]
 Status             	Full
 Summary            	No
 Page               	0

[OPTIONS]
 Units              	LPS
 Headloss           	H-W
 Specific Gravity   	1.0
 Viscosity          	1.0
 Trials             	40
 Accuracy           	0.001
 CHECKFREQ          	2
 MAXCHECK           	10
 DAMPLIMIT          	0
 Unbalanced         	Continue 10
 Pattern            	1
 Demand Multiplier  	1.0
 Demand Model       	PDA
 Minimum Pressure   	0
 Required Pressure  	0.1
 Pressure Exponent  	0.5
 Emitter Exponent   	0.5
 Quality            	Fluoride mg/L
 Diffusivity        	1.0
 Tolerance          	0.01

[COORDINATES]
;Node            	X-Coord           	Y-Coord
2               	19.000            	20.000            
3               	11.130            	21.110            
4               	14.000            	28.000            
5               	19.000            	25.000            
6               	28.000            	23.000            
7               	36.000            	39.000            
8               	38.000            	30.000            
9               	36.000            	42.000            
10              	37.000            	23.000            
11              	37.000            	49.000            
12              	39.000            	60.000            
13              	38.000            	64.000            
14              	38.000            	66.000            
15              	37.000            	69.000            
16              	27.000            	65.000            
17              	27.000            	69.000            
18              	23.000            	68.000            
19              	21.000            	59.000            
20              	45.000            	68.000            
21              	51.000            	62.000            
22              	54.000            	69.000            
23              	35.000            	74.000            
24              	37.000            	71.000            
25              	35.000            	76.000            
27              	39.000            	87.000            
28              	49.000            	85.000            
29              	42.000            	86.000            
30              	47.000            	80.000            
31              	37.000            	80.000            
32              	23.000            	64.000            
33              	56.000            	73.000            
34              	56.000            	77.000            
35              	43.000            	81.000            
36              	53.000            	87.000            
1               	21.220            	5.480             
26              	25.620            	78.370            

[VERTICES]
;Link            	X-Coord           	Y-Coord

[LABELS]
;X-Coord             Y-Coord             Label & Anchor Node
22.049            	14.023            	"Pump"	
15.374            	6.115             	"Station"	
20.919            	79.237            	"Tank"	

[BACKDROP]
  DIMENSIONS  	8.750             	-0.150            	58.250            	91.150            
 UNITS          	Meters
 FILE           	
 OFFSET         	0.00            	0.00            

[END]
